/*--------------------------------*- C++ -*----------------------------------*\
| =========                 |                                                 |
| \\      /  F ield         | OpenFOAM: The Open Source CFD Toolbox           |
|  \\    /   O peration     | Version:  v2306                                 |
|   \\  /    A nd           | Website:  www.openfoam.com                      |
|    \\/     M anipulation  |                                                 |
\*---------------------------------------------------------------------------*/
FoamFile
{
    version     2.0;
    format      ascii;
    class       dictionary;
    object      blockMeshDict;
}
// * * * * * * * * * * * * * * * * * * * * * * * * * * * * * * * * * * * * * //

scale   1;

vertices
(
    (-0.12 -0.15 -0.15)
    ( 0.15 -0.15 -0.15)
    ( 0.15  0.15 -0.15)
    (-0.12  0.15 -0.15)
    (-0.12 -0.15  0.15)
    ( 0.15 -0.15  0.15)
    ( 0.15  0.15  0.15)
    (-0.12  0.15  0.15)
);

blocks
(
    hex (0 1 2 3 4 5 6 7) (80 100 100) simpleGrading (1 1 1)
);

edges
(
);

boundary
(
    atmosphere
    {
        type patch;
        faces
        (
            (3 2 6 7)
        );
    }
    inlet
    {
        type patch;
        faces
        (
            (4 0 3 7)
        );
    }
    outlet
    {
        type patch;
        faces
        (
            (0 1 5 4)
        );
    }
    wall
    {
        type wall;
        faces
        (
            (0 1 2 3)
            (4 5 6 7)
            (1 5 6 2)
        );
    }
/*
    inlet
    {
        type patch;
        faces
        (
            (1 2 6 5)
            (5 6 10 9)
            (9 10 14 13)
            (13 14 18 17)
            (17 18 22 21)
            (21 22 26 25)
        );
    }
    outlet
    {
        type patch;
        faces
        (
            (0 4 7 3)
            (4 8 11 7)
            (8 12 15 11)
            (12 16 19 15)
            (16 20 23 19)
            (20 24 27 23)
        );
    }
    bottom
    {
        type symmetryPlane;
        faces
        (
            (0 3 2 1)
        );
    }
    side
    {
        type symmetryPlane;
        faces
        (
            (0 1 5 4)
            (4 5 9 8)
            (8 9 13 12)
            (12 13 17 16)
            (16 17 21 20)
            (20 21 25 24)
        );
    }
    midPlane
    {
        type symmetryPlane;
        faces
        (
            (3 7 6 2)
            (7 11 10 6)
            (11 15 14 10)
            (15 19 18 14)
            (19 23 22 18)
            (23 27 26 22)
        );
    }
*/
);

mergePatchPairs
(
);


// ************************************************************************* //
