/*--------------------------------*- C++ -*----------------------------------*\
| =========                 |                                                 |
| \\      /  F ield         | OpenFOAM: The Open Source CFD Toolbox           |
|  \\    /   O peration     | Version:  v2306                                 |
|   \\  /    A nd           | Website:  www.openfoam.com                      |
|    \\/     M anipulation  |                                                 |
\*---------------------------------------------------------------------------*/
FoamFile
{
    version     2.0;
    format      ascii;
    class       dictionary;
    object      blockMeshDict;
}
// * * * * * * * * * * * * * * * * * * * * * * * * * * * * * * * * * * * * * //

scale   1;

vertices
(
    (-0.12 -0.13 -0.12)
    ( 0.12 -0.13 -0.12)
    ( 0.12  0.05 -0.12)
    (-0.12  0.05 -0.12)
    (-0.12 -0.13  0.12)
    ( 0.12 -0.13  0.12)
    ( 0.12  0.05  0.12)
    (-0.12  0.05  0.12)
);

blocks
(
    hex (0 1 2 3 4 5 6 7) (80 60 80) simpleGrading (1 1 1)
);

edges
(
);

boundary
(
    atmosphere
    {
        type patch;
        faces
        (
            (3 2 6 7)
        );
    }
    inlet
    {
        type patch;
        faces
        (
            (4 0 3 7)
        );
    }
    outlet
    {
        type patch;
        faces
        (
            (0 1 5 4)
        );
    }
    wall
    {
        type wall;
        faces
        (
            (0 1 2 3)
            (4 5 6 7)
            (1 5 6 2)
        );
    }
);

mergePatchPairs
(
);


// ************************************************************************* //
